<?xml version="1.0" encoding="UTF-8"?>

<!-- generated on 2023-02-28 13:28:52 by Eclipse SUMO netedit Version 1.16.0
<configuration xmlns:xsi="http://www.w3.org/2001/XMLSchema-instance" xsi:noNamespaceSchemaLocation="http://sumo.dlr.de/xsd/netconvertConfiguration.xsd">

    <input>
        <sumocfg-file value="C:\SAVeNoW\SUMO_LaneFree\sumo_lanefree_plugin\lane_free_scenarios\cruden_lf\main.sumocfg"/>
        <sumo-net-file value="C:\SAVeNoW\SUMO_LaneFree\sumo_lanefree_plugin\lane_free_scenarios\cruden_lf\crudenworld2_v1.1_odr1.4._lf.net.xml"/>
    </input>

    <output>
        <output-file value="C:\SAVeNoW\SUMO_LaneFree\sumo_lanefree_plugin\lane_free_scenarios\cruden_lf\crudenworld2_v1.1_odr1.4._lf.net.xml"/>
    </output>

    <processing>
        <geometry.min-radius.fix.railways value="false"/>
        <geometry.max-grade.fix value="false"/>
        <offset.disable-normalization value="true"/>
        <lefthand value="0"/>
    </processing>

    <junctions>
        <no-turnarounds value="true"/>
        <junctions.corner-detail value="5"/>
        <junctions.limit-turn-speed value="5.50"/>
        <rectangular-lane-cut value="1"/>
    </junctions>

    <pedestrian>
        <walkingareas value="0"/>
    </pedestrian>

</configuration>
-->

<net version="1.16" junctionCornerDetail="5" rectangularLaneCut="true" limitTurnSpeed="5.50" xmlns:xsi="http://www.w3.org/2001/XMLSchema-instance" xsi:noNamespaceSchemaLocation="http://sumo.dlr.de/xsd/net_file.xsd">

    <location netOffset="2695.99,2642.37" convBoundary="0.00,0.00,5469.61,5207.46" origBoundary="-2693.49,-2642.37,2771.12,2562.58" projParameter="!"/>

    <type id="bidirectional" priority="1" speed="1.39" disallow="pedestrian tram rail_urban rail rail_electric rail_fast ship" width="3.65"/>
    <type id="border" priority="0" speed="1.39" disallow="all" discard="1" width="0.10"/>
    <type id="driving" priority="1" speed="13.89" disallow="pedestrian tram rail_urban rail rail_electric rail_fast ship" width="3.65"/>
    <type id="entry" priority="1" speed="22.22" disallow="pedestrian tram rail_urban rail rail_electric rail_fast ship" width="3.65"/>
    <type id="exit" priority="1" speed="22.22" disallow="pedestrian tram rail_urban rail rail_electric rail_fast ship" width="3.65"/>
    <type id="median" priority="0" speed="1.39" disallow="all" discard="1" width="0.10"/>
    <type id="mwyEntry" priority="1" speed="22.22" allow="private emergency authority army vip passenger hov taxi bus coach delivery truck trailer motorcycle evehicle custom1 custom2" width="3.65"/>
    <type id="mwyExit" priority="1" speed="22.22" allow="private emergency authority army vip passenger hov taxi bus coach delivery truck trailer motorcycle evehicle custom1 custom2" width="3.65"/>
    <type id="none" priority="0" speed="1.39" disallow="all" discard="1" width="1.00"/>
    <type id="offRamp" priority="1" speed="22.22" allow="private emergency authority army vip passenger hov taxi bus coach delivery truck trailer motorcycle evehicle custom1 custom2" width="3.65"/>
    <type id="onRamp" priority="1" speed="22.22" allow="private emergency authority army vip passenger hov taxi bus coach delivery truck trailer motorcycle evehicle custom1 custom2" width="3.65"/>
    <type id="parking" priority="1" speed="1.39" disallow="pedestrian tram rail_urban rail rail_electric rail_fast ship" width="2.50"/>
    <type id="rail" priority="3" speed="33.33" allow="rail_urban rail rail_electric rail_fast" width="3.65"/>
    <type id="restricted" priority="0" speed="13.89" disallow="all" width="3.65"/>
    <type id="roadWorks" priority="0" speed="1.39" allow="authority" width="3.65"/>
    <type id="shoulder" priority="0" speed="1.39" disallow="all" discard="1" width="1.00"/>
    <type id="special1" priority="1" speed="22.22" allow="custom1" discard="1" width="3.65"/>
    <type id="special2" priority="1" speed="22.22" allow="custom2" discard="1" width="3.65"/>
    <type id="special3" priority="1" speed="22.22" allow="custom1 custom2" discard="1" width="3.65"/>
    <type id="stop" priority="1" speed="13.89" disallow="pedestrian tram rail_urban rail rail_electric rail_fast ship" width="3.65"/>
    <type id="tram" priority="2" speed="13.89" allow="tram" width="3.65"/>

    <edge id=":1_0" function="internal">
        <lane id=":1_0_0" index="0" disallow="pedestrian tram rail_urban rail rail_electric rail_fast ship" speed="7.83" length="16.31" width="3.35" shape="3359.39,1803.58 3357.13,1799.89 3354.19,1798.25 3350.57,1798.66 3346.26,1801.12">
            <param key="signalID" value="10103 10107"/>
        </lane>
    </edge>
    <edge id=":1_1" function="internal">
        <lane id=":1_1_0" index="0" disallow="pedestrian tram rail_urban rail rail_electric rail_fast ship" speed="8.33" length="26.01" width="3.50" shape="3359.39,1803.58 3356.91,1798.72 3353.05,1792.25 3348.94,1785.92 3345.73,1781.49">
            <param key="signalID" value="10103 10107"/>
        </lane>
    </edge>
    <edge id=":1_2" function="internal">
        <lane id=":1_2_0" index="0" disallow="pedestrian tram rail_urban rail rail_electric rail_fast ship" speed="11.11" length="3.23" width="3.35" shape="3359.39,1803.58 3358.51,1800.47">
            <param key="signalID" value="10103 10107"/>
        </lane>
    </edge>
    <edge id=":1_12" function="internal">
        <lane id=":1_12_0" index="0" disallow="pedestrian tram rail_urban rail rail_electric rail_fast ship" speed="11.11" length="21.92" width="3.35" shape="3358.51,1800.47 3357.39,1796.55 3357.46,1790.42 3359.58,1785.17 3363.78,1780.81">
            <param key="signalID" value="10103 10107"/>
        </lane>
    </edge>
    <edge id=":1_3" function="internal">
        <lane id=":1_3_0" index="0" disallow="pedestrian tram rail_urban rail rail_electric rail_fast ship" speed="10.29" length="19.35" width="2.95" shape="3367.21,1785.41 3363.44,1789.06 3361.34,1793.12 3360.90,1797.59 3362.13,1802.47">
            <param key="signalID" value="10100 10105"/>
        </lane>
    </edge>
    <edge id=":1_4" function="internal">
        <lane id=":1_4_0" index="0" disallow="pedestrian tram rail_urban rail rail_electric rail_fast ship" speed="13.89" length="26.19" width="3.35" shape="3367.21,1785.41 3346.26,1801.12">
            <param key="signalID" value="10100 10105"/>
        </lane>
    </edge>
    <edge id=":1_5" function="internal">
        <lane id=":1_5_0" index="0" disallow="pedestrian tram rail_urban rail rail_electric rail_fast ship" speed="10.58" length="10.11" width="3.50" shape="3367.21,1785.41 3361.64,1788.33 3357.83,1788.56">
            <param key="signalID" value="10100 10105"/>
        </lane>
    </edge>
    <edge id=":1_13" function="internal">
        <lane id=":1_13_0" index="0" disallow="pedestrian tram rail_urban rail rail_electric rail_fast ship" speed="10.58" length="14.52" width="3.50" shape="3357.83,1788.56 3356.20,1788.66 3350.90,1786.38 3345.73,1781.49">
            <param key="signalID" value="10100 10105"/>
        </lane>
    </edge>
    <edge id=":1_6" function="internal">
        <lane id=":1_6_0" index="0" disallow="pedestrian tram rail_urban rail rail_electric rail_fast ship" speed="8.98" length="17.41" width="3.35" shape="3348.43,1779.27 3351.88,1782.38 3355.59,1783.68 3359.56,1783.16 3363.78,1780.81">
            <param key="signalID" value="10106 10102"/>
        </lane>
    </edge>
    <edge id=":1_7" function="internal">
        <lane id=":1_7_0" index="0" disallow="pedestrian tram rail_urban rail rail_electric rail_fast ship" speed="8.33" length="26.98" width="2.95" shape="3348.43,1779.27 3351.65,1783.87 3355.77,1790.58 3359.64,1797.43 3362.13,1802.47">
            <param key="signalID" value="10106 10102"/>
        </lane>
    </edge>
    <edge id=":1_8" function="internal">
        <lane id=":1_8_0" index="0" disallow="pedestrian tram rail_urban rail rail_electric rail_fast ship" speed="10.37" length="7.86" width="3.35" shape="3348.43,1779.27 3352.16,1785.32 3352.28,1786.06">
            <param key="signalID" value="10106 10102"/>
        </lane>
    </edge>
    <edge id=":1_14" function="internal">
        <lane id=":1_14_0" index="0" disallow="pedestrian tram rail_urban rail rail_electric rail_fast ship" speed="10.37" length="17.45" width="3.35" shape="3352.28,1786.06 3353.04,1790.97 3351.07,1796.24 3346.26,1801.12">
            <param key="signalID" value="10106 10102"/>
        </lane>
    </edge>
    <edge id=":1_9" function="internal">
        <lane id=":1_9_0" index="0" disallow="pedestrian tram rail_urban rail rail_electric rail_fast ship" speed="8.72" length="17.62" width="3.50" shape="3342.81,1796.52 3346.54,1792.92 3348.27,1789.21 3348.00,1785.41 3345.73,1781.49">
            <param key="signalID" value="10101 10110"/>
        </lane>
    </edge>
    <edge id=":1_10" function="internal">
        <lane id=":1_10_0" index="0" disallow="pedestrian tram rail_urban rail rail_electric rail_fast ship" speed="13.89" length="26.20" width="3.35" shape="3342.81,1796.52 3363.78,1780.81">
            <param key="signalID" value="10101 10110"/>
        </lane>
    </edge>
    <edge id=":1_11" function="internal">
        <lane id=":1_11_0" index="0" disallow="pedestrian tram rail_urban rail rail_electric rail_fast ship" speed="9.56" length="10.44" width="2.95" shape="3342.81,1796.52 3348.88,1793.24 3352.42,1793.18">
            <param key="signalID" value="10101 10110"/>
        </lane>
    </edge>
    <edge id=":1_15" function="internal">
        <lane id=":1_15_0" index="0" disallow="pedestrian tram rail_urban rail rail_electric rail_fast ship" speed="9.56" length="14.30" width="2.95" shape="3352.42,1793.18 3354.12,1793.14 3358.54,1796.22 3362.13,1802.47">
            <param key="signalID" value="10101 10110"/>
        </lane>
    </edge>
    <edge id=":10_0" function="internal">
        <lane id=":10_0_0" index="0" disallow="pedestrian tram rail_urban rail rail_electric rail_fast ship" speed="8.33" length="26.12" width="3.75" shape="3271.41,1989.51 3245.59,1985.59"/>
    </edge>
    <edge id=":10_1" function="internal">
        <lane id=":10_1_0" index="0" disallow="pedestrian tram rail_urban rail rail_electric rail_fast ship" speed="8.33" length="8.00" width="2.95" shape="3271.41,1989.51 3265.18,1987.65 3264.02,1986.71"/>
    </edge>
    <edge id=":10_6" function="internal">
        <lane id=":10_6_0" index="0" disallow="pedestrian tram rail_urban rail rail_electric rail_fast ship" speed="8.33" length="15.56" width="2.95" shape="3264.02,1986.71 3261.04,1984.28 3259.00,1979.38 3259.05,1972.97"/>
    </edge>
    <edge id=":10_2" function="internal">
        <lane id=":10_2_0" index="0" disallow="pedestrian tram rail_urban rail rail_electric rail_fast ship" speed="8.33" length="18.16" width="3.75" shape="3261.97,1973.41 3261.98,1978.18 3263.66,1981.83 3266.99,1984.37 3271.97,1985.81"/>
    </edge>
    <edge id=":10_3" function="internal">
        <lane id=":10_3_0" index="0" disallow="pedestrian tram rail_urban rail rail_electric rail_fast ship" speed="8.33" length="23.27" width="3.75" shape="3261.97,1973.41 3260.12,1979.55 3256.78,1983.62 3251.93,1985.64 3245.59,1985.59"/>
    </edge>
    <edge id=":10_4" function="internal">
        <lane id=":10_4_0" index="0" disallow="pedestrian tram rail_urban rail rail_electric rail_fast ship" speed="8.33" length="15.94" width="2.95" shape="3246.53,1979.41 3251.54,1979.65 3255.30,1978.66 3257.80,1976.43 3259.05,1972.97"/>
    </edge>
    <edge id=":10_5" function="internal">
        <lane id=":10_5_0" index="0" disallow="pedestrian tram rail_urban rail rail_electric rail_fast ship" speed="8.33" length="26.25" width="3.75" shape="3246.53,1979.41 3253.98,1980.94 3261.10,1982.89 3267.30,1984.70 3271.97,1985.81"/>
    </edge>
    <edge id=":11_0" function="internal">
        <lane id=":11_0_0" index="0" disallow="pedestrian tram rail_urban rail rail_electric rail_fast ship" speed="8.33" length="17.78" width="3.75" shape="3221.98,1807.08 3218.29,1804.06 3214.42,1802.83 3210.36,1803.38 3206.11,1805.72"/>
    </edge>
    <edge id=":11_1" function="internal">
        <lane id=":11_1_0" index="0" disallow="pedestrian tram rail_urban rail rail_electric rail_fast ship" speed="8.33" length="23.66" width="2.95" shape="3221.98,1807.08 3205.96,1789.67"/>
    </edge>
    <edge id=":11_2" function="internal">
        <lane id=":11_2_0" index="0" disallow="pedestrian tram rail_urban rail rail_electric rail_fast ship" speed="8.33" length="23.66" width="2.95" shape="3208.14,1787.67 3224.16,1805.08"/>
    </edge>
    <edge id=":11_3" function="internal">
        <lane id=":11_3_0" index="0" disallow="pedestrian tram rail_urban rail rail_electric rail_fast ship" speed="8.08" length="15.43" width="2.95" shape="3203.87,1802.72 3207.13,1799.57 3208.57,1796.34 3208.18,1793.04 3205.96,1789.67"/>
    </edge>
    <edge id=":11_4" function="internal">
        <lane id=":11_4_0" index="0" disallow="pedestrian tram rail_urban rail rail_electric rail_fast ship" speed="8.33" length="22.79" width="2.95" shape="3203.87,1802.72 3209.17,1799.86 3214.32,1799.31 3219.31,1801.05 3224.16,1805.08"/>
    </edge>
    <edge id=":12_0" function="internal">
        <lane id=":12_0_0" index="0" disallow="all" speed="13.89" length="28.73" width="3.75" shape="3445.76,1962.25 3422.12,1978.56">
            <param key="signalID" value="10301"/>
        </lane>
    </edge>
    <edge id=":12_1" function="internal">
        <lane id=":12_1_0" index="0" disallow="all" speed="10.47" length="14.08" width="2.95" shape="3445.76,1962.25 3438.40,1966.11 3432.63,1965.98">
            <param key="signalID" value="10301"/>
        </lane>
    </edge>
    <edge id=":12_6" function="internal">
        <lane id=":12_6_0" index="0" disallow="all" speed="10.47" length="15.32" width="2.95" shape="3432.63,1965.98 3432.31,1965.97 3427.25,1962.06 3423.03,1954.56">
            <param key="signalID" value="10301"/>
        </lane>
    </edge>
    <edge id=":12_2" function="internal">
        <lane id=":12_2_0" index="0" disallow="pedestrian tram rail_urban rail rail_electric rail_fast ship" speed="8.53" length="19.28" width="3.75" shape="3425.75,1953.42 3428.46,1957.72 3431.97,1959.63 3436.29,1959.16 3441.40,1956.31">
            <param key="signalID" value="10303"/>
        </lane>
    </edge>
    <edge id=":12_3" function="internal">
        <lane id=":12_3_0" index="0" disallow="pedestrian tram rail_urban rail rail_electric rail_fast ship" speed="11.11" length="27.53" width="3.75" shape="3425.75,1953.42 3428.20,1961.35 3428.41,1968.18 3426.38,1973.92 3422.12,1978.56">
            <param key="signalID" value="10303"/>
        </lane>
    </edge>
    <edge id=":12_4" function="internal">
        <lane id=":12_4_0" index="0" disallow="pedestrian tram rail_urban rail rail_electric rail_fast ship" speed="10.57" length="20.49" width="2.95" shape="3417.57,1972.60 3421.62,1968.65 3423.88,1964.33 3424.35,1959.63 3423.03,1954.56">
            <param key="signalID" value="10300"/>
        </lane>
    </edge>
    <edge id=":12_5" function="internal">
        <lane id=":12_5_0" index="0" disallow="pedestrian tram rail_urban rail rail_electric rail_fast ship" speed="13.89" length="28.86" width="3.75" shape="3417.57,1972.60 3441.40,1956.31">
            <param key="signalID" value="10300"/>
        </lane>
    </edge>
    <edge id=":1275#1_0" function="internal">
        <lane id=":1275#1_0_0" index="0" disallow="pedestrian tram rail_urban rail rail_electric rail_fast ship" speed="19.44" length="3.46" width="3.30" shape="2720.59,1932.46,-3.71 2722.64,1935.71,-3.63"/>
        <lane id=":1275#1_0_1" index="1" allow="emergency authority" speed="19.44" length="3.46" width="3.25" shape="2718.07,1932.04,-3.71 2719.40,1935.24,-3.63"/>
        <lane id=":1275#1_0_2" index="2" disallow="all" speed="13.89" length="3.46" width="3.25" shape="2716.12,1931.71,-3.71 2716.05,1932.61,-3.69 2716.14,1933.24,-3.67 2716.23,1933.86,-3.66 2716.19,1934.77,-3.63"/>
    </edge>
    <edge id=":1275#1_3" function="internal">
        <lane id=":1275#1_3_0" index="0" disallow="pedestrian tram rail_urban rail rail_electric rail_fast ship" speed="19.44" length="3.07" width="3.30" shape="2712.95,1934.29,-3.63 2713.42,1931.26,-3.71"/>
    </edge>
    <edge id=":1275#2_0" function="internal">
        <lane id=":1275#2_0_0" index="0" disallow="pedestrian tram rail_urban rail rail_electric rail_fast ship" speed="19.44" length="9.32" width="3.30" shape="2760.07,1833.16,-5.20 2759.18,1835.63,-5.19 2759.45,1837.67,-5.19 2759.68,1839.69,-5.18 2758.70,1842.10,-5.17"/>
    </edge>
    <edge id=":1275#2_1" function="internal">
        <lane id=":1275#2_1_0" index="0" disallow="pedestrian tram rail_urban rail rail_electric rail_fast ship" speed="19.44" length="8.12" width="3.30" shape="2752.80,1837.85,-5.17 2753.95,1835.78,-5.18 2754.35,1834.15,-5.19 2754.73,1832.50,-5.19 2755.80,1830.37,-5.20"/>
    </edge>
    <edge id=":1275#3_0" function="internal">
        <lane id=":1275#3_0_0" index="0" disallow="pedestrian tram rail_urban rail rail_electric rail_fast ship" speed="19.44" length="3.07" width="3.30" shape="2778.58,1796.91,-5.14 2777.48,1799.78,-5.15"/>
    </edge>
    <edge id=":1275#3_1" function="internal">
        <lane id=":1275#3_1_0" index="0" disallow="pedestrian tram rail_urban rail rail_electric rail_fast ship" speed="19.44" length="3.24" width="3.30" shape="2772.75,1797.88,-5.15 2772.88,1796.95,-5.15 2772.61,1796.26,-5.14 2772.34,1795.57,-5.14 2772.44,1794.63,-5.14"/>
        <lane id=":1275#3_1_1" index="1" allow="emergency authority" speed="19.44" length="3.24" width="3.25" shape="2775.12,1798.83,-5.15 2775.35,1797.95,-5.15 2775.33,1797.31,-5.14 2775.30,1796.66,-5.14 2775.51,1795.77,-5.14"/>
    </edge>
    <edge id=":1284#1_0" function="internal">
        <lane id=":1284#1_0_0" index="0" disallow="pedestrian tram rail_urban rail rail_electric rail_fast ship" speed="8.34" length="1.12" width="3.50" shape="3296.50,2067.40 3297.40,2066.74"/>
    </edge>
    <edge id=":1284#1_1" function="internal">
        <lane id=":1284#1_1_0" index="0" disallow="pedestrian tram rail_urban rail rail_electric rail_fast ship" speed="13.89" length="1.12" width="3.50" shape="3295.32,2063.92 3294.42,2064.59"/>
    </edge>
    <edge id=":1284#2_0" function="internal">
        <lane id=":1284#2_0_0" index="0" disallow="pedestrian tram rail_urban rail rail_electric rail_fast ship" speed="2.78" length="0.30" width="3.50" shape="3287.11,2074.31 3286.87,2074.49"/>
    </edge>
    <edge id=":1284#2_1" function="internal">
        <lane id=":1284#2_1_0" index="0" disallow="pedestrian tram rail_urban rail rail_electric rail_fast ship" speed="13.89" length="0.30" width="3.50" shape="3284.79,2071.67 3285.03,2071.49"/>
    </edge>
    <edge id=":1284#3_0" function="internal">
        <lane id=":1284#3_0_0" index="0" disallow="pedestrian tram rail_urban rail rail_electric rail_fast ship" speed="8.34" length="0.30" width="3.50" shape="3279.03,2080.25,0.00 3278.79,2080.43"/>
    </edge>
    <edge id=":1284#3_1" function="internal">
        <lane id=":1284#3_1_0" index="0" disallow="pedestrian tram rail_urban rail rail_electric rail_fast ship" speed="13.89" length="0.30" width="3.50" shape="3276.71,2077.61 3276.95,2077.43,0.00"/>
    </edge>
    <edge id=":1284#4_0" function="internal">
        <lane id=":1284#4_0_0" index="0" disallow="pedestrian tram rail_urban rail rail_electric rail_fast ship" speed="13.89" length="0.26" width="3.50" shape="3266.91,2089.18,0.02 3266.70,2089.34,0.02"/>
    </edge>
    <edge id=":1284#4_1" function="internal">
        <lane id=":1284#4_1_0" index="0" disallow="pedestrian tram rail_urban rail rail_electric rail_fast ship" speed="8.34" length="0.29" width="3.50" shape="3264.58,2086.55,0.02 3264.81,2086.38,0.02"/>
    </edge>
    <edge id=":1285#1_0" function="internal">
        <lane id=":1285#1_0_0" index="0" disallow="pedestrian tram rail_urban rail rail_electric rail_fast ship" speed="22.22" length="0.30" width="3.50" shape="3726.29,1588.84,3.50 3726.08,1588.61,3.50"/>
        <lane id=":1285#1_0_1" index="1" disallow="pedestrian tram rail_urban rail rail_electric rail_fast ship" speed="22.22" length="0.30" width="3.50" shape="3728.84,1586.44,3.50 3728.63,1586.22,3.50"/>
    </edge>
    <edge id=":1285#1_2" function="internal">
        <lane id=":1285#1_2_0" index="0" disallow="pedestrian tram rail_urban rail rail_electric rail_fast ship" speed="22.22" length="0.30" width="3.50" shape="3736.30,1579.04,3.50 3736.50,1579.26,3.50"/>
        <lane id=":1285#1_2_1" index="1" disallow="pedestrian tram rail_urban rail rail_electric rail_fast ship" speed="22.22" length="0.30" width="3.50" shape="3733.74,1581.44,3.50 3733.95,1581.65,3.50"/>
        <lane id=":1285#1_2_2" index="2" disallow="all" speed="13.89" length="0.30" width="3.50" shape="3731.19,1583.83,3.50 3731.39,1584.05,3.50"/>
    </edge>
    <edge id=":1285#10_0" function="internal">
        <lane id=":1285#10_0_0" index="0" disallow="pedestrian tram rail_urban rail rail_electric rail_fast ship" speed="13.89" length="0.28" width="3.75" shape="3589.97,1906.60,0.51 3589.68,1906.59,0.51"/>
    </edge>
    <edge id=":1285#10_1" function="internal">
        <lane id=":1285#10_1_0" index="0" disallow="pedestrian tram rail_urban rail rail_electric rail_fast ship" speed="13.89" length="0.32" width="3.75" shape="3589.79,1902.84,0.51 3590.11,1902.85,0.51"/>
    </edge>
    <edge id=":1285#2_0" function="internal">
        <lane id=":1285#2_0_0" index="0" disallow="pedestrian tram rail_urban rail rail_electric rail_fast ship" speed="22.22" length="3.15" width="3.50" shape="3786.44,1650.76,3.35 3784.31,1648.42,3.37"/>
        <lane id=":1285#2_0_1" index="1" disallow="pedestrian tram rail_urban rail rail_electric rail_fast ship" speed="22.22" length="3.15" width="3.50" shape="3789.01,1648.36,3.35 3786.88,1646.05,3.37"/>
    </edge>
    <edge id=":1285#2_2" function="internal">
        <lane id=":1285#2_2_0" index="0" disallow="pedestrian tram rail_urban rail rail_electric rail_fast ship" speed="22.22" length="4.64" width="3.50" shape="3794.59,1638.92,3.37 3794.16,1643.53,3.35"/>
        <lane id=":1285#2_2_1" index="1" disallow="pedestrian tram rail_urban rail rail_electric rail_fast ship" speed="22.22" length="4.64" width="3.54" shape="3792.02,1641.30,3.37 3791.59,1645.93,3.35"/>
    </edge>
    <edge id=":1285#3_0" function="internal">
        <lane id=":1285#3_0_0" index="0" disallow="all" speed="13.89" length="3.14" width="1.71" shape="3801.87,1670.16,3.25 3801.18,1669.56,3.25 3800.59,1669.26,3.25 3800.01,1668.97,3.26 3799.31,1668.37,3.26"/>
        <lane id=":1285#3_0_1" index="1" allow="emergency authority" speed="22.22" length="3.14" width="3.50" shape="3803.82,1668.37,3.24 3803.11,1667.77,3.25 3802.52,1667.48,3.25 3801.93,1667.19,3.26 3801.22,1666.59,3.26"/>
        <lane id=":1285#3_0_2" index="2" disallow="pedestrian tram rail_urban rail rail_electric rail_fast ship" speed="22.22" length="3.14" width="3.54" shape="3805.83,1666.50,3.24 3803.79,1664.19,3.26"/>
    </edge>
    <edge id=":1285#3_3" function="internal">
        <lane id=":1285#3_3_0" index="0" disallow="all" speed="13.89" length="3.18" width="1.71" shape="3810.24,1658.19,3.26 3811.01,1658.77,3.26 3811.68,1658.98,3.25 3812.36,1659.18,3.25 3813.12,1659.77,3.24"/>
        <lane id=":1285#3_3_1" index="1" disallow="pedestrian tram rail_urban rail rail_electric rail_fast ship" speed="22.22" length="3.18" width="3.50" shape="3808.96,1659.38,3.26 3811.21,1661.54,3.24"/>
        <lane id=":1285#3_3_2" index="2" disallow="pedestrian tram rail_urban rail rail_electric rail_fast ship" speed="22.22" length="3.18" width="3.71" shape="3806.39,1661.78,3.26 3808.56,1663.98,3.24"/>
    </edge>
    <edge id=":1285#4_0" function="internal">
        <lane id=":1285#4_0_0" index="0" disallow="all" speed="13.89" length="3.50" width="3.50" shape="3837.99,1705.03,3.09 3833.94,1704.51,3.10"/>
        <lane id=":1285#4_0_1" index="1" allow="emergency authority" speed="22.22" length="3.50" width="1.79" shape="3838.65,1704.42,3.09 3837.90,1703.82,3.09 3837.26,1703.57,3.09 3836.62,1703.31,3.10 3835.88,1702.71,3.10"/>
        <lane id=":1285#4_0_2" index="2" disallow="pedestrian tram rail_urban rail rail_electric rail_fast ship" speed="22.22" length="3.50" width="3.71" shape="3840.02,1703.14,3.09 3837.89,1700.84,3.10"/>
    </edge>
    <edge id=":1285#4_3" function="internal">
        <lane id=":1285#4_3_0" index="0" disallow="all" speed="13.89" length="3.22" width="3.50" shape="3845.16,1694.08,3.10 3845.71,1694.85,3.10 3845.94,1695.49,3.09 3846.17,1696.12,3.09 3846.73,1696.89,3.09"/>
        <lane id=":1285#4_3_1" index="1" allow="emergency authority" speed="22.22" length="3.22" width="1.79" shape="3843.25,1695.86,3.10 3843.80,1696.63,3.10 3844.02,1697.28,3.09 3844.24,1697.92,3.09 3844.79,1698.70,3.09"/>
        <lane id=":1285#4_3_2" index="2" disallow="pedestrian tram rail_urban rail rail_electric rail_fast ship" speed="22.22" length="3.22" width="3.75" shape="3840.61,1698.31,3.10 3842.76,1700.59,3.09"/>
    </edge>
    <edge id=":1285#5_0" function="internal">
        <lane id=":1285#5_0_0" index="0" disallow="pedestrian tram rail_urban rail rail_electric rail_fast ship" speed="22.22" length="8.01" width="3.75" shape="3858.96,1723.42,3.06 3853.49,1717.57,3.06"/>
    </edge>
    <edge id=":1285#5_1" function="internal">
        <lane id=":1285#5_1_0" index="0" disallow="all" speed="13.89" length="8.14" width="3.50" shape="3860.19,1711.32,3.06 3861.63,1713.27,3.06 3862.27,1714.86,3.06 3862.92,1716.45,3.06 3864.35,1718.40,3.06"/>
        <lane id=":1285#5_1_1" index="1" disallow="pedestrian tram rail_urban rail rail_electric rail_fast ship" speed="22.22" length="8.14" width="3.75" shape="3856.23,1715.02,3.06 3861.70,1720.87,3.06"/>
    </edge>
    <edge id=":1285#6_0" function="internal">
        <lane id=":1285#6_0_0" index="0" disallow="pedestrian tram rail_urban rail rail_electric rail_fast ship" speed="12.50" length="0.31" width="3.75" shape="3720.10,1910.08,1.78 3719.80,1910.09,1.78"/>
    </edge>
    <edge id=":1285#6_1" function="internal">
        <lane id=":1285#6_1_0" index="0" disallow="pedestrian tram rail_urban rail rail_electric rail_fast ship" speed="22.22" length="0.29" width="3.75" shape="3719.76,1906.34,1.78 3720.06,1906.33,1.78"/>
    </edge>
    <edge id=":1285#7_0" function="internal">
        <lane id=":1285#7_0_0" index="0" disallow="pedestrian tram rail_urban rail rail_electric rail_fast ship" speed="2.78" length="0.19" width="3.75" shape="3694.98,1909.66,1.63 3694.78,1909.65,1.63"/>
    </edge>
    <edge id=":1285#7_1" function="internal">
        <lane id=":1285#7_1_0" index="0" disallow="pedestrian tram rail_urban rail rail_electric rail_fast ship" speed="12.50" length="0.32" width="3.75" shape="3694.78,1905.91,1.63 3695.10,1905.91,1.63"/>
    </edge>
    <edge id=":1285#8_0" function="internal">
        <lane id=":1285#8_0_0" index="0" disallow="pedestrian tram rail_urban rail rail_electric rail_fast ship" speed="8.34" length="0.30" width="3.75" shape="3680.00,1909.23,1.52 3679.70,1909.22,1.52"/>
    </edge>
    <edge id=":1285#8_1" function="internal">
        <lane id=":1285#8_1_0" index="0" disallow="pedestrian tram rail_urban rail rail_electric rail_fast ship" speed="2.78" length="0.30" width="3.75" shape="3679.82,1905.47,1.52 3680.12,1905.48,1.52"/>
    </edge>
    <edge id=":1285#9_0" function="internal">
        <lane id=":1285#9_0_0" index="0" disallow="pedestrian tram rail_urban rail rail_electric rail_fast ship" speed="13.89" length="0.29" width="3.75" shape="3660.00,1908.64,1.29 3659.71,1908.63,1.29"/>
    </edge>
    <edge id=":1285#9_1" function="internal">
        <lane id=":1285#9_1_0" index="0" disallow="pedestrian tram rail_urban rail rail_electric rail_fast ship" speed="8.34" length="0.31" width="3.75" shape="3659.81,1904.88,1.29 3660.12,1904.89,1.29"/>
    </edge>
    <edge id=":1287#1_0" function="internal">
        <lane id=":1287#1_0_0" index="0" disallow="pedestrian tram rail_urban rail rail_electric rail_fast ship" speed="8.34" length="0.26" width="3.50" shape="3264.35,1620.17,-1.29 3264.22,1619.94,-1.29"/>
    </edge>
    <edge id=":1287#1_1" function="internal">
        <lane id=":1287#1_1_0" index="0" disallow="pedestrian tram rail_urban rail rail_electric rail_fast ship" speed="13.89" length="0.32" width="3.50" shape="3267.28,1618.23,-1.29 3267.43,1618.51,-1.29"/>
    </edge>
    <edge id=":1287#2_0" function="internal">
        <lane id=":1287#2_0_0" index="0" disallow="pedestrian tram rail_urban rail rail_electric rail_fast ship" speed="2.78" length="0.31" width="3.50" shape="3257.04,1607.11,-1.48 3256.89,1606.84,-1.48"/>
    </edge>
    <edge id=":1287#2_1" function="internal">
        <lane id=":1287#2_1_0" index="0" disallow="pedestrian tram rail_urban rail rail_electric rail_fast ship" speed="8.34" length="0.28" width="3.50" shape="3259.95,1605.14,-1.48 3260.08,1605.38,-1.48"/>
    </edge>
    <edge id=":1287#3_0" function="internal">
        <lane id=":1287#3_0_0" index="0" disallow="pedestrian tram rail_urban rail rail_electric rail_fast ship" speed="8.34" length="0.29" width="3.50" shape="3252.16,1598.38,-1.54 3252.02,1598.13,-1.54"/>
    </edge>
    <edge id=":1287#3_1" function="internal">
        <lane id=":1287#3_1_0" index="0" disallow="pedestrian tram rail_urban rail rail_electric rail_fast ship" speed="2.78" length="0.31" width="3.50" shape="3255.05,1596.39,-1.54 3255.21,1596.66,-1.54"/>
    </edge>
    <edge id=":1287#4_0" function="internal">
        <lane id=":1287#4_0_0" index="0" disallow="pedestrian tram rail_urban rail rail_electric rail_fast ship" speed="13.89" length="0.32" width="3.50" shape="3244.83,1585.29,-1.76 3244.68,1585.02,-1.76"/>
    </edge>
    <edge id=":1287#4_1" function="internal">