<configuration>
   <input>
       <net-file value="ring.net.xml"/>
       <route-files value="ring.rou.xml"/>
       <gui-settings-file value="gui-settings.cfg"/>
	   <additional-files value="detector.add.xml"/>
      
   </input>
	<processing>
		   <step-method.ballistic value="true"/>
		   <collision.action value="none"/>
		   <step-length value="0.25"/>
	</processing>
</configuration>
