<?xml version="1.0" encoding="UTF-8"?>

<!-- generated on 2022-11-02 15:02:59 by Eclipse SUMO netedit Version 1.10.0
<configuration xmlns:xsi="http://www.w3.org/2001/XMLSchema-instance" xsi:noNamespaceSchemaLocation="http://sumo.dlr.de/xsd/netconvertConfiguration.xsd">

    <input>
        <sumo-net-file value="C:\SAVeNoW\SUMO_LaneFree\sumo_lanefree_plugin\lane_free_scenarios\beltway\ring_road_single_edge\ring.net.xml"/>
    </input>

    <output>
        <output-file value="C:\SAVeNoW\SUMO_LaneFree\sumo_lanefree_plugin\lane_free_scenarios\beltway\ring_road_single_edge\ring.net.xml"/>
    </output>

    <processing>
        <geometry.min-radius.fix.railways value="false"/>
        <geometry.max-grade.fix value="false"/>
        <offset.disable-normalization value="true"/>
        <lefthand value="false"/>
    </processing>

    <junctions>
        <no-internal-links value="true"/>
        <no-turnarounds value="true"/>
        <junctions.corner-detail value="5"/>
        <junctions.limit-turn-speed value="5.5"/>
        <rectangular-lane-cut value="false"/>
    </junctions>

    <pedestrian>
        <walkingareas value="false"/>
    </pedestrian>

    <report>
        <aggregate-warnings value="5"/>
    </report>

</configuration>
-->

<net version="1.9" junctionCornerDetail="5" limitTurnSpeed="5.50" xmlns:xsi="http://www.w3.org/2001/XMLSchema-instance" xsi:noNamespaceSchemaLocation="http://sumo.dlr.de/xsd/net_file.xsd">

    <location netOffset="0.00,0.00" convBoundary="0.00,0.00,1000.00,0.00" origBoundary="-10000000000.00,-10000000000.00,10000000000.00,10000000000.00" projParameter="!"/>

    <edge id="road_stretch" from="gneJ1" to="gneJ2" priority="-1" spreadType="center" length="1000.00">
        <lane id="road_stretch_0" index="0" speed="45.00" length="1000.00" width="10.20" shape="0.00,0.00 1000.00,0.00"/>
    </edge>

    <junction id="gneJ1" type="dead_end" x="0.00" y="0.00" incLanes="" intLanes="" shape="0.00,5.10 0.00,-5.10"/>
    <junction id="gneJ2" type="dead_end" x="1000.00" y="0.00" incLanes="road_stretch_0" intLanes="" shape="1000.00,-5.10 1000.00,5.10"/>

</net>
